733672
  SLPMS1  03010512002D

 16 18  0  0  0  0  0  0  0  0999 V2000
    5.2698   -5.2304    0.0000 O   0  5  0  0  0  0  0  0  0  0  0  0
    3.1343   -4.5076    0.0000 O   0  0  0  0  0  0  0  0  0  0  0  0
    4.4090   -4.2513    0.0000 N   0  3  0  0  0  0  0  0  0  0  0  0
    3.2854    0.0000    0.0000 C   0  0  0  0  0  0  0  0  0  0  0  0
    3.9359   -2.0041    0.0000 C   0  0  0  0  0  0  0  0  0  0  0  0
    4.3367   -0.7688    0.0000 C   0  0  0  0  0  0  0  0  0  0  0  0
    2.2341   -0.7688    0.0000 C   0  0  0  0  0  0  0  0  0  0  0  0
    2.6349   -2.0041    0.0000 C   0  0  0  0  0  0  0  0  0  0  0  0
    4.8230   -3.0226    0.0000 C   0  0  0  0  0  0  0  0  0  0  0  0
    5.6575   -0.4665    0.0000 C   0  0  0  0  0  0  0  0  0  0  0  0
    0.9133   -0.4665    0.0000 C   0  0  0  0  0  0  0  0  0  0  0  0
    1.7478   -3.0226    0.0000 C   0  0  0  0  0  0  0  0  0  0  0  0
    6.1503   -2.7532    0.0000 C   0  0  0  0  0  0  0  0  0  0  0  0
    6.5708   -1.4653    0.0000 C   0  0  0  0  0  0  0  0  0  0  0  0
    0.0000   -1.4653    0.0000 C   0  0  0  0  0  0  0  0  0  0  0  0
    0.4205   -2.7532    0.0000 C   0  0  0  0  0  0  0  0  0  0  0  0
  1  3  1  0  0  0  0
  3  2  2  0  0  0  0
  3  9  1  0  0  0  0
  6  4  1  0  0  0  0
  4  7  1  0  0  0  0
  5  6  1  0  0  0  0
  8  5  1  0  0  0  0
  9  5  2  0  0  0  0
  6 10  2  0  0  0  0
  7  8  2  0  0  0  0
 11  7  1  0  0  0  0
  8 12  1  0  0  0  0
 13  9  1  0  0  0  0
 10 14  1  0  0  0  0
 15 11  2  0  0  0  0
 12 16  2  0  0  0  0
 14 13  2  0  0  0  0
 16 15  1  0  0  0  0
M  CHG  2   1  -1   3   1
M  END
>  <Identifier>
733672

>  <Canonical SMILES>
O=[N+](c1c2-c3c(cccc3)Cc2ccc1)[O-]

>  <Canonical Non-stereo SMILES>
O=[N+](c1c2-c3c(cccc3)Cc2ccc1)[O-]

>  <Pair Count>
0

>  <Geometry>
2D

>  <3D Quality>


>  <Class List>
C 1;C 2;C 3;C 4;C 5

>  <AP_FWeight>
211.22153000

>  <CASRN>
24237-68-1

>  <Dashboard_URL>
https://comptox.epa.gov/dashboard/DTXSID00178930

>  <DSSTox_Compound_id>
DTXCID60101421

>  <DSSTox_Substance_id>
DTXSID00178930

>  <Mol_Formula>
C13H9NO2

>  <Mol_Weight>
211.22

>  <Monoisotopic_Mass>
211.063328534

>  <Preferred_name>
Fluorene, 4-nitro-

>  <QC_Level>
Public_Medium

$$$$
58754
  SLPMS1  03010512002D

 17 19  0  0  0  0  0  0  0  0999 V2000
    6.0521    0.0000    0.0000 O   0  0  0  0  0  0  0  0  0  0  0  0
    5.2759   -6.0126    0.0000 O   0  5  0  0  0  0  0  0  0  0  0  0
    3.1379   -5.2890    0.0000 O   0  0  0  0  0  0  0  0  0  0  0  0
    4.4141   -5.0325    0.0000 N   0  3  0  0  0  0  0  0  0  0  0  0
    3.2892   -0.7762    0.0000 C   0  0  0  0  0  0  0  0  0  0  0  0
    4.3417   -1.5459    0.0000 C   0  0  0  0  0  0  0  0  0  0  0  0
    3.9404   -2.7827    0.0000 C   0  0  0  0  0  0  0  0  0  0  0  0
    2.2366   -1.5459    0.0000 C   0  0  0  0  0  0  0  0  0  0  0  0
    2.6379   -2.7827    0.0000 C   0  0  0  0  0  0  0  0  0  0  0  0
    4.8285   -3.8023    0.0000 C   0  0  0  0  0  0  0  0  0  0  0  0
    5.6640   -1.2433    0.0000 C   0  0  0  0  0  0  0  0  0  0  0  0
    0.9144   -1.2433    0.0000 C   0  0  0  0  0  0  0  0  0  0  0  0
    1.7498   -3.8023    0.0000 C   0  0  0  0  0  0  0  0  0  0  0  0
    6.1574   -3.5326    0.0000 C   0  0  0  0  0  0  0  0  0  0  0  0
    6.5784   -2.2432    0.0000 C   0  0  0  0  0  0  0  0  0  0  0  0
    0.0000   -2.2432    0.0000 C   0  0  0  0  0  0  0  0  0  0  0  0
    0.4210   -3.5326    0.0000 C   0  0  0  0  0  0  0  0  0  0  0  0
  1 11  1  0  0  0  0
  4  2  1  0  0  0  0
  4  3  2  0  0  0  0
 10  4  1  0  0  0  0
  6  5  1  0  0  0  0
  5  8  1  0  0  0  0
  7  6  1  0  0  0  0
 11  6  2  0  0  0  0
  9  7  1  0  0  0  0
  7 10  2  0  0  0  0
  8  9  2  0  0  0  0
 12  8  1  0  0  0  0
  9 13  1  0  0  0  0
 10 14  1  0  0  0  0
 15 11  1  0  0  0  0
 16 12  2  0  0  0  0
 13 17  2  0  0  0  0
 14 15  2  0  0  0  0
 17 16  1  0  0  0  0
M  CHG  2   2  -1   4   1
M  END
>  <Identifier>
58754

>  <Canonical SMILES>
O=[N+](c1c2-c3c(cccc3)Cc2c(O)cc1)[O-]

>  <Canonical Non-stereo SMILES>
O=[N+](c1c2-c3c(cccc3)Cc2c(O)cc1)[O-]

>  <Pair Count>
0

>  <Geometry>
2D

>  <3D Quality>


>  <Class List>
C 1;C 2;C 3;C 4;C 5

>  <AP_FWeight>
227.22093000

>  <CASRN>
6972-03-8

>  <Dashboard_URL>
https://comptox.epa.gov/dashboard/DTXSID40290180

>  <DSSTox_Compound_id>
DTXCID10241326

>  <DSSTox_Substance_id>
DTXSID40290180

>  <Mol_Formula>
C13H9NO3

>  <Mol_Weight>
227.219

>  <Monoisotopic_Mass>
227.058243154

>  <Preferred_name>
4-nitro-9h-fluoren-1-ol

>  <QC_Level>
Public_Low

$$$$
