733672
     RDKit          2D

 16 18  0  0  0  0  0  0  0  0999 V2000
    5.2698   -5.2304    0.0000 O   0  0  0  0  0  0  0  0  0  0  0  0
    3.1343   -4.5076    0.0000 O   0  0  0  0  0  0  0  0  0  0  0  0
    4.4090   -4.2513    0.0000 N   0  0  0  0  0  0  0  0  0  0  0  0
    3.2854    0.0000    0.0000 C   0  0  0  0  0  0  0  0  0  0  0  0
    3.9359   -2.0041    0.0000 C   0  0  0  0  0  0  0  0  0  0  0  0
    4.3367   -0.7688    0.0000 C   0  0  0  0  0  0  0  0  0  0  0  0
    2.2341   -0.7688    0.0000 C   0  0  0  0  0  0  0  0  0  0  0  0
    2.6349   -2.0041    0.0000 C   0  0  0  0  0  0  0  0  0  0  0  0
    4.8230   -3.0226    0.0000 C   0  0  0  0  0  0  0  0  0  0  0  0
    5.6575   -0.4665    0.0000 C   0  0  0  0  0  0  0  0  0  0  0  0
    0.9133   -0.4665    0.0000 C   0  0  0  0  0  0  0  0  0  0  0  0
    1.7478   -3.0226    0.0000 C   0  0  0  0  0  0  0  0  0  0  0  0
    6.1503   -2.7532    0.0000 C   0  0  0  0  0  0  0  0  0  0  0  0
    6.5708   -1.4653    0.0000 C   0  0  0  0  0  0  0  0  0  0  0  0
    0.0000   -1.4653    0.0000 C   0  0  0  0  0  0  0  0  0  0  0  0
    0.4205   -2.7532    0.0000 C   0  0  0  0  0  0  0  0  0  0  0  0
  1  3  1  0
  3  2  2  0
  3  9  1  0
  6  4  1  0
  4  7  1  0
  5  6  2  0
  8  5  1  0
  9  5  1  0
  6 10  1  0
  7  8  2  0
 11  7  1  0
  8 12  1  0
 13  9  2  0
 10 14  2  0
 15 11  2  0
 12 16  2  0
 14 13  1  0
 16 15  1  0
M  CHG  2   1  -1   3   1
M  END
>  <Identifier>  (1) 
733672

>  <Canonical SMILES>  (1) 
O=[N+](c1c2-c3c(cccc3)Cc2ccc1)[O-]

>  <Canonical Non-stereo SMILES>  (1) 
O=[N+](c1c2-c3c(cccc3)Cc2ccc1)[O-]

>  <Pair Count>  (1) 
0

>  <Geometry>  (1) 
2D

>  <3D Quality>  (1) 


>  <Class List>  (1) 
C 1;C 2;C 3;C 4;C 5

>  <AP_FWeight>  (1) 
211.22153000

>  <CASRN>  (1) 
24237-68-1

>  <Dashboard_URL>  (1) 
https://comptox.epa.gov/dashboard/DTXSID00178930

>  <DSSTox_Compound_id>  (1) 
DTXCID60101421

>  <DSSTox_Substance_id>  (1) 
DTXSID00178930

>  <Mol_Formula>  (1) 
C13H9NO2

>  <Mol_Weight>  (1) 
211.22

>  <Monoisotopic_Mass>  (1) 
211.063328534

>  <Preferred_name>  (1) 
Fluorene, 4-nitro-

>  <QC_Level>  (1) 
Public_Medium

>  <PREDICTED SPECTRUM>  (1) 
30 97
37 16
38 58
39 148
40 43
41 34
43 107
44 54
46 68
49 44
50 255
51 262
52 141
53 57
54 27
55 139
56 69
57 188
61 182
62 274
63 416
64 166
65 111
67 18
68 53
69 130
70 111
71 88
73 53
74 309
75 401
76 280
77 148
78 69
79 57
80 22
81 151
82 250
83 229
84 117
85 172
86 241
87 333
88 208
89 237
94 5
95 123
96 109
97 65
98 162
99 173
100 134
101 117
102 90
107 71
108 74
109 138
110 225
111 239
112 45
113 253
114 113
115 198
116 17
122 53
123 130
125 150
126 261
127 251
128 189
129 66
135 62
136 26
137 342
138 383
139 445
140 201
141 75
149 29
150 227
151 274
152 398
153 431
154 308
155 154
156 48
162 307
163 571
164 999
165 962
166 545
167 210
177 27
178 23
180 184
181 382
182 201
183 30
194 791
195 270
211 830
212 319
213 75

$$$$
58754
     RDKit          2D

 17 19  0  0  0  0  0  0  0  0999 V2000
    6.0521    0.0000    0.0000 O   0  0  0  0  0  0  0  0  0  0  0  0
    5.2759   -6.0126    0.0000 O   0  0  0  0  0  0  0  0  0  0  0  0
    3.1379   -5.2890    0.0000 O   0  0  0  0  0  0  0  0  0  0  0  0
    4.4141   -5.0325    0.0000 N   0  0  0  0  0  0  0  0  0  0  0  0
    3.2892   -0.7762    0.0000 C   0  0  0  0  0  0  0  0  0  0  0  0
    4.3417   -1.5459    0.0000 C   0  0  0  0  0  0  0  0  0  0  0  0
    3.9404   -2.7827    0.0000 C   0  0  0  0  0  0  0  0  0  0  0  0
    2.2366   -1.5459    0.0000 C   0  0  0  0  0  0  0  0  0  0  0  0
    2.6379   -2.7827    0.0000 C   0  0  0  0  0  0  0  0  0  0  0  0
    4.8285   -3.8023    0.0000 C   0  0  0  0  0  0  0  0  0  0  0  0
    5.6640   -1.2433    0.0000 C   0  0  0  0  0  0  0  0  0  0  0  0
    0.9144   -1.2433    0.0000 C   0  0  0  0  0  0  0  0  0  0  0  0
    1.7498   -3.8023    0.0000 C   0  0  0  0  0  0  0  0  0  0  0  0
    6.1574   -3.5326    0.0000 C   0  0  0  0  0  0  0  0  0  0  0  0
    6.5784   -2.2432    0.0000 C   0  0  0  0  0  0  0  0  0  0  0  0
    0.0000   -2.2432    0.0000 C   0  0  0  0  0  0  0  0  0  0  0  0
    0.4210   -3.5326    0.0000 C   0  0  0  0  0  0  0  0  0  0  0  0
  1 11  1  0
  4  2  1  0
  4  3  2  0
 10  4  1  0
  6  5  1  0
  5  8  1  0
  7  6  2  0
 11  6  1  0
  9  7  1  0
  7 10  1  0
  8  9  2  0
 12  8  1  0
  9 13  1  0
 10 14  2  0
 15 11  2  0
 16 12  2  0
 13 17  2  0
 14 15  1  0
 17 16  1  0
M  CHG  2   2  -1   4   1
M  END
>  <Identifier>  (2) 
58754

>  <Canonical SMILES>  (2) 
O=[N+](c1c2-c3c(cccc3)Cc2c(O)cc1)[O-]

>  <Canonical Non-stereo SMILES>  (2) 
O=[N+](c1c2-c3c(cccc3)Cc2c(O)cc1)[O-]

>  <Pair Count>  (2) 
0

>  <Geometry>  (2) 
2D

>  <3D Quality>  (2) 


>  <Class List>  (2) 
C 1;C 2;C 3;C 4;C 5

>  <AP_FWeight>  (2) 
227.22093000

>  <CASRN>  (2) 
6972-03-8

>  <Dashboard_URL>  (2) 
https://comptox.epa.gov/dashboard/DTXSID40290180

>  <DSSTox_Compound_id>  (2) 
DTXCID10241326

>  <DSSTox_Substance_id>  (2) 
DTXSID40290180

>  <Mol_Formula>  (2) 
C13H9NO3

>  <Mol_Weight>  (2) 
227.219

>  <Monoisotopic_Mass>  (2) 
227.058243154

>  <Preferred_name>  (2) 
4-nitro-9h-fluoren-1-ol

>  <QC_Level>  (2) 
Public_Low

>  <PREDICTED SPECTRUM>  (2) 
26 0
29 11
30 125
33 10
34 4
37 52
38 174
39 362
40 184
41 235
42 210
43 233
44 223
45 89
46 212
49 52
50 426
51 575
52 363
53 308
54 93
55 288
56 96
57 186
58 46
61 109
62 405
63 663
64 343
65 279
66 71
67 98
68 90
69 260
70 250
71 145
73 81
74 415
75 510
76 507
77 551
78 281
79 187
80 67
81 183
82 243
83 194
84 157
85 151
86 338
87 468
88 346
89 290
90 52
91 99
92 55
93 24
94 77
95 177
96 96
97 140
98 244
99 248
100 317
101 367
102 435
103 109
104 47
105 65
107 103
108 28
109 113
110 192
111 224
112 40
113 364
114 295
115 464
122 132
123 124
124 41
125 253
126 488
127 651
128 400
129 143
137 256
138 131
139 711
140 367
141 326
142 54
149 49
150 389
151 582
152 881
153 689
154 337
155 227
156 18
162 85
163 315
164 174
165 287
166 324
167 255
168 302
169 441
170 155
178 128
179 322
180 715
181 884
182 454
183 171
195 145
196 149
197 360
198 298
199 106
200 16
209 69
210 310
211 80
213 18
225 50
226 138
227 999
228 388
229 125

$$$$
